/*--------------------------------*- C++ -*----------------------------------*\
  =========                 |
  \\      /  F ield         | OpenFOAM: The Open Source CFD Toolbox
   \\    /   O peration     | Website:  https://openfoam.org
    \\  /    A nd           | Version:  10
     \\/     M anipulation  |
\*---------------------------------------------------------------------------*/
FoamFile
{
    format      ascii;
    class       dictionary;
    object      fvConstraints;
}
// * * * * * * * * * * * * * * * * * * * * * * * * * * * * * * * * * * * * * //



limitp
{
    type       limitPressure;

    minFactor 0.1;
    maxFactor 2;

    selectionMode all;
}


limitT
{
    type       limitTemperature;

    min        273.15;
    max        330;

    selectionMode all;
}

/*
limitU
{
    type            limitMag;

    selectionMode   all;

    field           U;

    max             250; //70
    min             -10;
}
*/

// ************************************************************************* //
