/*--------------------------------*- C++ -*----------------------------------*\
  =========                 |
  \\      /  F ield         | OpenFOAM: The Open Source CFD Toolbox
   \\    /   O peration     | Website:  https://openfoam.org
    \\  /    A nd           | Version:  10
     \\/     M anipulation  |
\*---------------------------------------------------------------------------*/
FoamFile
{
    format      ascii;
    class       dictionary;
    object      topoSetDict;
}
// * * * * * * * * * * * * * * * * * * * * * * * * * * * * * * * * * * * * * //

actions
(
    {
        action  new;
        type    cellSet;
        name    Rotor_CellSet;
        source  cylinderToCell;

        p1 (0 0 0);
        p2 (0 0 1);
        
        radius 1;
    }

    {
        action  new;
        type    cellZoneSet;
        name    Rotor;

        source  setToCellZone;
        set Rotor_CellSet;
    }


);

// ************************************************************************* //
