/*--------------------------------*- C++ -*----------------------------------*\
  =========                 |
  \\      /  F ield         | OpenFOAM: The Open Source CFD Toolbox
   \\    /   O peration     | Website:  https://openfoam.org
    \\  /    A nd           | Version:  10
     \\/     M anipulation  |
\*---------------------------------------------------------------------------*/
FoamFile
{
    format      ascii;
    class       dictionary;
    location    "constant";
    object      momentumTransport;
}
// * * * * * * * * * * * * * * * * * * * * * * * * * * * * * * * * * * * * * //

simulationType laminar;

RAS
{
    // Tested with kEpsilon, realizableKE, kOmega, kOmega2006, kOmegaSST, v2f,
    // ShihQuadraticKE, LienCubicKE.
    model           kEpsilon;

    turbulence      off;

    printCoeffs     off;

    viscosityModel  Newtonian;
}


// ************************************************************************* //
