/*--------------------------------*- C++ -*----------------------------------*\
  =========                 |
  \\      /  F ield         | OpenFOAM: The Open Source CFD Toolbox
   \\    /   O peration     | Website:  https://openfoam.org
    \\  /    A nd           | Version:  10
     \\/     M anipulation  |
\*---------------------------------------------------------------------------*/
FoamFile
{
    format      ascii;
    class       dictionary;
    object      blockMeshDict;
}
// * * * * * * * * * * * * * * * * * * * * * * * * * * * * * * * * * * * * * //

// Note: this file is a Copy of $FOAM_TUTORIALS/resources/blockMesh/pitzDaily

convertToMeters 0.001;

//Radial values
maxRadius 750;
minRadius 630;
thetaOne 22.5;
thetaTwo 45.0;

//- Derived quantities
//rad_AngleOne 0;
deltaTheta  #calc "$thetaTwo - $thetaOne";
rad_AngleOne #calc "degToRad($thetaOne)";
rad_AngleTwo #calc "degToRad($thetaTwo)";

//Point1
x_0 #calc "$minRadius*cos($rad_AngleOne)";
y_0 #calc "$minRadius*sin($rad_AngleOne)";
//Point2
x_1 #calc "$maxRadius*cos($rad_AngleOne)";
y_1 #calc "$maxRadius*sin($rad_AngleOne)";
//Point 3
x_2 #calc "$maxRadius*cos($rad_AngleTwo)";
y_2 #calc "$maxRadius*sin($rad_AngleTwo)";
//Point4
x_3 #calc "$minRadius*cos($rad_AngleTwo)";
y_3 #calc "$minRadius*sin($rad_AngleTwo)";


vertices
(
    ($x_0 $y_0 0)
    ($x_1 $y_1 0)
    ($x_2 $y_2 0)
    ($x_3 $y_3 0)
    ($x_0 $y_0 150)
    ($x_1 $y_1 150)
    ($x_2 $y_2 150)
    ($x_3 $y_3 150)
/*
    (-50 50 150)
    (50 50 150)
    (50 150 150)
    (-50 150 150)
    (-50 50 300)
    (50 50 300)
    (50 150 300)
    (-50 150 300)


    (-50 50 300)
    (50 50 300)
    (50 150 300)
    (-50 150 300)
    (-50 50 450)
    (50 50 450)
    (50 150 450)
    (-50 150 450)
*/
);


blocks
(
    hex (0 1 2 3 4 5 6 7) igv (30 30 10) simpleGrading (1 1 1)
    /*
    hex (8 9 10 11 12 13 14 15) rotor (30 30 10) simpleGrading (1 1 1)
    hex (16 17 18 19 20 21 22 23) stator (30 30 10) simpleGrading (1 1 1)
    */

);

edges
    (
        arc 1 2  $deltaTheta (0 0 1) //Dircetion of arc dictates arc side
        arc 0 3  $deltaTheta (0 0 1) //Dircetion of arc dictates arc side
        arc 5 6   $deltaTheta (0 0 1) //Dircetion of arc dictates arc side
        arc 4 7  $deltaTheta (0 0 1) //Dircetion of arc dictates arc side

    );


boundary
(
/*
    inlet
    {
        type patch;
        faces
        (
            (0 1 2 3)
        );
    }
    outlet
    {
        type patch;
        faces
        (
            (20 21 22 23)
        );
    }
    walls_igv
    {
        type wall;
        faces
        (
            (2 6 7 3)
            (1 5 6 2)
            (0 4 5 1)
            (0 4 7 3)
        );
    }
    walls_rotor
    {
        type wall;
        faces
        (
            (11 15 14 10)
            (8 12 15 11)
            (9 13 12 8)
            (10 14 13 9)
        );
    }
    walls_stator
    {
        type wall;
        faces
        (
            (19 23 22 18)
            (16 20 23 19)
            (17 21 20 16)
            (18 22 21 17)
        );
    }

    nonCoupleIn1
    {
        type patch;
        inGroups (nonCouple);
        faces
        (
            (4 5 6 7)
        );
    }

    nonCoupleIn2
    {
        type patch;
        inGroups (nonCouple);
        faces
        (
            (8 9 10 11)
        );
    }
    nonCoupleOut1
    {
        type patch;
        inGroups (nonCouple);
        faces
        (
            (12 13 14 15)
        );
    }

    nonCoupleOut2
    {
        type patch;
        inGroups (nonCouple);
        faces
        (
            (16 17 18 19)
        );
    }
*/
);

// ************************************************************************* //
